LTspice 24.0.12 for Windows
Circuit: * C:\Daniel\UDG\7mo\Seminario de solución de circuitos digitales\NAND\NAND 2mA.asc
Start Time: Thu Sep 19 15:38:02 2024
Ignoring BSIM parameter XL
Ignoring BSIM parameter XW
Ignoring BSIM parameter XL
Ignoring BSIM parameter XW
solver = Normal
Maximum thread count: 12
tnom = 27
temp = 27
method = modified trap
WARNING: Less than two connections to node a.  This node is used by v1.
Warning: Pd = 0 is less than W.
Warning: Ps = 0 is less than W.
Warning: Pd = 0 is less than W.
Warning: Ps = 0 is less than W.
Direct Newton iteration for .op point succeeded.

bwa: 1/falla=7.47008e+07
falla=1.33867e-08 FROM 4.01738e-06 TO 4.03076e-06
risa=2.7568e-08 FROM 2.00868e-06 TO 2.03625e-06
tpra=1.01398e-06 FROM 1.005e-06 TO 2.01898e-06
tpfa=2.00772e-06 FROM 2.015e-06 TO 4.02272e-06
bwb: 1/fallb=3.62739e+07
risb=1.33867e-08 FROM 4.01738e-06 TO 4.03076e-06
fallb=2.7568e-08 FROM 2.00868e-06 TO 2.03625e-06
tprb=1.39799e-08 FROM 2.005e-06 TO 2.01898e-06
tpfb=7.72272e-09 FROM 4.015e-06 TO 4.02272e-06

Total elapsed time: 0.094 seconds.

