LTspice 24.0.12 for Windows
Circuit: * C:\Users\arnol\OneDrive\Documents\GitHub\Digital-Design\Seminario de solución de circuitos digitales\NAND3\NAND3\NAND3 2mA.asc
Start Time: Mon Sep 30 18:29:14 2024
Ignoring BSIM parameter XL
Ignoring BSIM parameter XW
Ignoring BSIM parameter XL
Ignoring BSIM parameter XW
solver = Normal
Maximum thread count: 8
tnom = 27
temp = 27
method = modified trap
Warning: Pd = 0 is less than W.
Warning: Ps = 0 is less than W.
Warning: Pd = 0 is less than W.
Warning: Ps = 0 is less than W.


Measurement "vcrucea" FAIL'ed

Measurement "vila" FAIL'ed

Measurement "viha" FAIL'ed

Measurement "nmla" FAIL'ed

Measurement "nmha" FAIL'ed

Measurement "ria" FAIL'ed
isca: MAX(id(m2))=1.94456e-12 FROM 0 TO 3.3

Measurement "vcruceb" FAIL'ed
iscb: MAX(id(m2))=1.94456e-12 FROM 0 TO 3.3

Measurement "vilb" FAIL'ed

Measurement "vihb" FAIL'ed

Measurement "nmlb" FAIL'ed

Measurement "nmhb" FAIL'ed

Measurement "rib" FAIL'ed

Total elapsed time: 0.394 seconds.

