LTspice 24.0.12 for Windows
Circuit: * C:\Users\arnol\OneDrive\Documents\GitHub\Digital-Design\Seminario de solución de circuitos digitales\NAND3\NAND3\NAND 2mA.asc
Start Time: Sun Sep 29 20:15:31 2024
Ignoring BSIM parameter XL
Ignoring BSIM parameter XW
Ignoring BSIM parameter XL
Ignoring BSIM parameter XW
solver = Normal
Maximum thread count: 8
tnom = 27
temp = 27
method = modified trap
WARNING: Node NC_01 is floating.

WARNING: Less than two connections to node nc_01.  This node is used by m6.
Warning: Pd = 0 is less than W.
Warning: Ps = 0 is less than W.
Warning: Pd = 0 is less than W.
Warning: Ps = 0 is less than W.
Direct Newton iteration for .op point succeeded.

bwa: 1/falla=-250163
falla=-3.99739e-06 FROM 8.01571e-06 TO 4.01832e-06
risa=3.03986e-06 FROM 4.00816e-06 TO 7.04803e-06
tpra=6.01832e-06 FROM 1.005e-06 TO 7.02332e-06
tpfa=6.00367e-06 FROM 2.015e-06 TO 8.01867e-06
bwb: 1/fallb=328962
risb=-3.99739e-06 FROM 8.01571e-06 TO 4.01832e-06
fallb=3.03986e-06 FROM 4.00816e-06 TO 7.04803e-06
tprb=5.01832e-06 FROM 2.005e-06 TO 7.02332e-06
tpfb=4.00367e-06 FROM 4.015e-06 TO 8.01867e-06

Total elapsed time: 0.123 seconds.

