LTspice 24.0.12 for Windows
Circuit: * C:\Daniel\7mo\Seminario de solución de circuitos digitales\sim1 ID pmos.asc
Start Time: Mon Sep  2 22:35:08 2024
Ignoring BSIM parameter XL
Ignoring BSIM parameter XW
solver = Normal
Maximum thread count: 12
tnom = 27
temp = 27
method = modified trap
Warning: Pd = 0 is less than W.
Warning: Ps = 0 is less than W.

corriente1: id(m1)=6.6182e-05 at 0.5
r1: 0.5/corriente1=7554.92
corriente2: id(m1)=7.8276e-05 at 1
r2: 1/corriente2=12775.3
corriente3: id(m1)=9.09263e-05 at 2
r3: 2/corriente3=21995.8
corriente4: id(m1)=0.000100186 at 3
r4: 3/corriente4=29944.2

Total elapsed time: 0.099 seconds.

