LTspice 24.0.12 for Windows
Circuit: * C:\Daniel\UDG\7mo\Seminario de solución de circuitos digitales\Inversor\Inversor\Inversor1mA.asc
Start Time: Tue Sep 17 16:55:51 2024
Ignoring BSIM parameter XL
Ignoring BSIM parameter XW
Ignoring BSIM parameter XL
Ignoring BSIM parameter XW
solver = Normal
Maximum thread count: 12
tnom = 27
temp = 27
method = modified trap
Warning: Pd = 0 is less than W.
Warning: Ps = 0 is less than W.
Warning: Pd = 0 is less than W.
Warning: Ps = 0 is less than W.
Direct Newton iteration for .op point succeeded.

risa=2.11398e-08 FROM 9.61038e-08 TO 1.17244e-07
falla=3.20194e-08 FROM 1.42624e-08 TO 4.62818e-08
tpra=1.65693e-08 FROM 1.05e-08 TO 2.70693e-08
tpfa=1.0106e-08 FROM 9.4e-08 TO 1.04106e-07
bwa: 1/falla=3.1231e+07

Total elapsed time: 0.187 seconds.

