LTspice 24.0.12 for Windows
Circuit: * C:\Daniel\7mo\Seminario de solución de circuitos digitales\Inversor\Inversor3mA.asc
Start Time: Thu Sep  5 10:23:34 2024
Ignoring BSIM parameter XL
Ignoring BSIM parameter XW
Ignoring BSIM parameter XL
Ignoring BSIM parameter XW
solver = Normal
Maximum thread count: 12
tnom = 27
temp = 27
method = modified trap
WARNING: Specified period is not longer than the sum of Trise, Tfall, and Ton for v1.  Increasing period to 1.2e-08
Warning: Pd = 0 is less than W.
Warning: Ps = 0 is less than W.
Warning: Pd = 0 is less than W.
Warning: Ps = 0 is less than W.
Direct Newton iteration for .op point succeeded.


Measurement "risa" FAIL'ed
falla=2.86633e-08 FROM 1.21941e-08 TO 4.08573e-08
tpra=6.21221e-09 FROM 1.05e-08 TO 1.67122e-08
tpfa=1.63841e-09 FROM 1.9e-08 TO 2.06384e-08
bwa: 1/falla=3.48879e+07

Total elapsed time: 0.088 seconds.

