LTspice 24.0.12 for Windows
Circuit: * C:\Daniel\UDG\7mo\Seminario de solución de circuitos digitales\NAND\NAND\NAND\NAND 3mA.asc
Start Time: Mon Sep 23 23:12:56 2024
Ignoring BSIM parameter XL
Ignoring BSIM parameter XW
Ignoring BSIM parameter XL
Ignoring BSIM parameter XW
solver = Normal
Maximum thread count: 12
tnom = 27
temp = 27
method = modified trap
WARNING: Less than two connections to node b.  This node is used by v3.
Warning: Pd = 0 is less than W.
Warning: Ps = 0 is less than W.
Warning: Pd = 0 is less than W.
Warning: Ps = 0 is less than W.

vcrucea: v(x)=v(a) AT 1.60444
vila: v(a)=1.38069 at 1.38069
viha: v(a)=1.91738 at 1.91738
nmla: v(a)=1.61827 at 1.61827
nmha: v(a)=1.61815 at 1.61815
ria: viha-vila=0.53669
isca: MAX(id(m2))=2.46667e-15 FROM 0 TO 3.3

Measurement "vcruceb" FAIL'ed
iscb: MAX(id(m2))=2.46667e-15 FROM 0 TO 3.3
vilb: v(b)=0 at 1.38069
vihb: v(b)=0 at 1.91738
nmlb: v(b)=0 at 1.61827
nmhb: v(b)=0 at 1.61815
rib: viha-vila=0.53669

Total elapsed time: 0.271 seconds.

