LTspice 24.0.12 for Windows
Circuit: * C:\Users\arnol\OneDrive\Documents\GitHub\Digital-Design\Seminario de solución de circuitos digitales\NAND\NAND\NAND\NAND 1mA.asc
Start Time: Sun Sep 29 17:42:20 2024
Ignoring BSIM parameter XL
Ignoring BSIM parameter XW
Ignoring BSIM parameter XL
Ignoring BSIM parameter XW
solver = Normal
Maximum thread count: 8
tnom = 27
temp = 27
method = modified trap
WARNING: Less than two connections to node a.  This node is used by v1.
Warning: Pd = 0 is less than W.
Warning: Ps = 0 is less than W.
Warning: Pd = 0 is less than W.
Warning: Ps = 0 is less than W.


Measurement "vcrucea" FAIL'ed
vila: v(a)=0 at 1.49721
viha: v(a)=0 at 1.9141

Measurement "nmla" FAIL'ed

Measurement "nmha" FAIL'ed
ria: viha-vila=0
isca: MAX(id(m2))=0.000233632 FROM 0 TO 3.3
vcruceb: v(x)=v(b) AT 1.69181
iscb: MAX(id(m2))=0.000233632 FROM 0 TO 3.3
vilb: v(b)=1.49721 at 1.49721
vihb: v(b)=1.9141 at 1.9141

Measurement "nmlb" FAIL'ed

Measurement "nmhb" FAIL'ed
rib: viha-vila=0

Total elapsed time: 0.201 seconds.

