LTspice 24.0.12 for Windows
Circuit: * C:\Users\arnol\OneDrive\Documents\GitHub\Digital-Design\Seminario de solución de circuitos digitales\AND\AND_2IN_2MA.asc
Start Time: Thu Oct  3 16:09:19 2024
Ignoring BSIM parameter XL
Ignoring BSIM parameter XW
Ignoring BSIM parameter XL
Ignoring BSIM parameter XW
solver = Normal
Maximum thread count: 8
tnom = 27
temp = 27
method = modified trap
Warning: Pd = 0 is less than W.
Warning: Ps = 0 is less than W.
Warning: Pd = 0 is less than W.
Warning: Ps = 0 is less than W.
Warning: Pd = 0 is less than W.
Warning: Ps = 0 is less than W.
Direct Newton iteration for .op point succeeded.
Total elapsed time: 0.180 seconds.

