LTspice 24.0.12 for Windows
Circuit: * C:\Daniel\UDG\7mo\Seminario de solución de circuitos digitales\NAND3\NAND3\OR\Or_3mA.asc
Start Time: Sun Oct  6 21:04:59 2024
Ignoring BSIM parameter XL
Ignoring BSIM parameter XW
Ignoring BSIM parameter XL
Ignoring BSIM parameter XW
Ignoring BSIM parameter XL
Ignoring BSIM parameter XW
Ignoring BSIM parameter XL
Ignoring BSIM parameter XW
solver = Normal
Maximum thread count: 12
tnom = 27
temp = 27
method = modified trap
Warning: Pd = 0 is less than W.
Warning: Ps = 0 is less than W.
Warning: Pd = 0 is less than W.
Warning: Ps = 0 is less than W.
Warning: Pd = 0 is less than W.
Warning: Ps = 0 is less than W.
Warning: Pd = 0 is less than W.
Warning: Ps = 0 is less than W.
Direct Newton iteration for .op point succeeded.

bwa: 1/falla=1.40629e+08
falla=7.11092e-09 FROM 1.00612e-06 TO 1.01323e-06
risa=1.12041e-08 FROM 4.01781e-06 TO 4.02901e-06
tpra=3.01728e-06 FROM 1.005e-06 TO 4.02228e-06
tpfa=-1.0063e-06 FROM 2.015e-06 TO 1.0087e-06
bwb: 1/fallb=8.92533e+07
risb=7.11092e-09 FROM 1.00612e-06 TO 1.01323e-06
fallb=1.12041e-08 FROM 4.01781e-06 TO 4.02901e-06
tprb=2.01728e-06 FROM 2.005e-06 TO 4.02228e-06
tpfb=-3.0063e-06 FROM 4.015e-06 TO 1.0087e-06

Total elapsed time: 0.249 seconds.

