LTspice 24.0.12 for Windows
Circuit: * C:\Daniel\UDG\7mo\Seminario de solución de circuitos digitales\Inversor\Inversor\Inversor.asc
Start Time: Tue Sep 17 15:29:59 2024
Ignoring BSIM parameter XL
Ignoring BSIM parameter XW
Ignoring BSIM parameter XL
Ignoring BSIM parameter XW
solver = Normal
Maximum thread count: 12
tnom = 27
temp = 27
method = modified trap
Warning: Pd = 0 is less than W.
Warning: Ps = 0 is less than W.
Warning: Pd = 0 is less than W.
Warning: Ps = 0 is less than W.
Direct Newton iteration for .op point succeeded.

risa=1.06804e-08 FROM 7.52789e-08 TO 8.59593e-08
falla=1.65215e-08 FROM 1.2781e-08 TO 2.93025e-08
tpra=8.99498e-09 FROM 1.05e-08 TO 1.9495e-08
tpfa=5.28042e-09 FROM 7.4e-08 TO 7.92804e-08
bwa: 1/falla=6.05273e+07

Total elapsed time: 0.081 seconds.

