LTspice 24.0.12 for Windows
Circuit: * C:\Users\tomas\Desktop\Xnor y or\Inversor3mA.asc
Start Time: Sun Oct  6 12:56:50 2024
