LTspice 24.0.12 for Windows
Circuit: * C:\Daniel\UDG\7mo\Seminario de solución de circuitos digitales\Inversor\Inversor\Inversor3mA.asc
Start Time: Tue Sep 17 15:27:41 2024
Ignoring BSIM parameter XL
Ignoring BSIM parameter XW
Ignoring BSIM parameter XL
Ignoring BSIM parameter XW
solver = Normal
Maximum thread count: 12
tnom = 27
temp = 27
method = modified trap
Warning: Pd = 0 is less than W.
Warning: Ps = 0 is less than W.
Warning: Pd = 0 is less than W.
Warning: Ps = 0 is less than W.
Direct Newton iteration for .op point succeeded.

risa=7.1911e-09 FROM 7.49897e-08 TO 8.21808e-08
falla=1.11213e-08 FROM 1.21941e-08 TO 2.33154e-08
tpra=6.3131e-09 FROM 1.05e-08 TO 1.68131e-08
tpfa=3.61066e-09 FROM 7.4e-08 TO 7.76107e-08
bwa: 1/falla=8.99176e+07

Total elapsed time: 0.091 seconds.

