LTspice 24.0.12 for Windows
Circuit: * C:\Daniel\UDG\7mo\Seminario de solución de circuitos digitales\NAND3\NAND3\NAND3\3inputs_NAND_3mA.asc
Start Time: Thu Oct  3 04:30:20 2024
Ignoring BSIM parameter XL
Ignoring BSIM parameter XW
Ignoring BSIM parameter XL
Ignoring BSIM parameter XW
solver = Normal
Maximum thread count: 12
tnom = 27
temp = 27
method = modified trap
Warning: Pd = 0 is less than W.
Warning: Ps = 0 is less than W.
Warning: Pd = 0 is less than W.
Warning: Ps = 0 is less than W.
Direct Newton iteration for .op point succeeded.

bwa: 1/falla=-500058
falla=-1.99977e-06 FROM 4.01734e-06 TO 2.01757e-06
risa=1.07454e-06 FROM 2.01272e-06 TO 3.08727e-06
tpra=2.03488e-06 FROM 1.005e-06 TO 3.03988e-06
tpfa=2.00751e-06 FROM 2.015e-06 TO 4.02251e-06
bwb: 1/fallb=930628
risb=-1.99977e-06 FROM 4.01734e-06 TO 2.01757e-06
fallb=1.07454e-06 FROM 2.01272e-06 TO 3.08727e-06
tprb=1.03488e-06 FROM 2.005e-06 TO 3.03988e-06
tpfb=7.51338e-09 FROM 4.015e-06 TO 4.02251e-06

Total elapsed time: 0.132 seconds.

