LTspice 24.0.12 for Windows
Circuit: * C:\Daniel\UDG\7mo\Seminario de solución de circuitos digitales\NAND3\NAND3\NAND3\3inputs_NAND_1mA.asc
Start Time: Thu Oct  3 00:03:06 2024
Ignoring BSIM parameter XL
Ignoring BSIM parameter XW
Ignoring BSIM parameter XL
Ignoring BSIM parameter XW
solver = Normal
Maximum thread count: 12
tnom = 27
temp = 27
method = modified trap
Warning: Pd = 0 is less than W.
Warning: Ps = 0 is less than W.
Warning: Pd = 0 is less than W.
Warning: Ps = 0 is less than W.
Direct Newton iteration for .op point succeeded.

bwa: 1/falla=-500526
falla=-1.9979e-06 FROM 4.02016e-06 TO 2.02226e-06
risa=1.07459e-06 FROM 2.01253e-06 TO 3.08712e-06
tpra=2.03479e-06 FROM 1.005e-06 TO 3.03979e-06
tpfa=2.01934e-06 FROM 2.015e-06 TO 4.03434e-06
bwb: 1/fallb=930589
risb=-1.9979e-06 FROM 4.02016e-06 TO 2.02226e-06
fallb=1.07459e-06 FROM 2.01253e-06 TO 3.08712e-06
tprb=1.03479e-06 FROM 2.005e-06 TO 3.03979e-06
tpfb=1.93368e-08 FROM 4.015e-06 TO 4.03434e-06

Total elapsed time: 0.119 seconds.

