LTspice 24.0.12 for Windows
Circuit: * C:\Daniel\UDG\7mo\Seminario de solución de circuitos digitales\NAND3\NAND3\NOR\3inputs_NOR_2mA.asc
Start Time: Thu Oct  3 03:22:17 2024
Ignoring BSIM parameter XL
Ignoring BSIM parameter XW
Ignoring BSIM parameter XL
Ignoring BSIM parameter XW
solver = Normal
Maximum thread count: 12
tnom = 27
temp = 27
method = modified trap
Warning: Pd = 0 is less than W.
Warning: Ps = 0 is less than W.
Warning: Pd = 0 is less than W.
Warning: Ps = 0 is less than W.
Direct Newton iteration for .op point succeeded.

bwa: 1/falla=4.96259e+07
falla=2.01508e-08 FROM 8.01813e-06 TO 8.03828e-06
risa=1.63771e-08 FROM 1.00746e-06 TO 1.02384e-06
tpra=9.28761e-09 FROM 1.005e-06 TO 1.01429e-06
tpfa=6.01031e-06 FROM 2.015e-06 TO 8.02531e-06
bwb: 1/fallb=6.10607e+07
risb=2.01508e-08 FROM 8.01813e-06 TO 8.03828e-06
fallb=1.63771e-08 FROM 1.00746e-06 TO 1.02384e-06
tprb=-9.90712e-07 FROM 2.005e-06 TO 1.01429e-06
tpfb=4.01031e-06 FROM 4.015e-06 TO 8.02531e-06

Total elapsed time: 0.110 seconds.

