LTspice 24.0.12 for Windows
Circuit: * C:\Daniel\UDG\7mo\Seminario de solución de circuitos digitales\NAND3\NAND3\NOR\3inputs_NOR_2mA_Correcion.asc
Start Time: Fri Oct  4 20:54:14 2024
Ignoring BSIM parameter XL
Ignoring BSIM parameter XW
Ignoring BSIM parameter XL
Ignoring BSIM parameter XW
solver = Normal
Maximum thread count: 12
tnom = 27
temp = 27
method = modified trap
Warning: Pd = 0 is less than W.
Warning: Ps = 0 is less than W.
Warning: Pd = 0 is less than W.
Warning: Ps = 0 is less than W.
Direct Newton iteration for .op point succeeded.

bwa: 1/falla=4.8084e+07
falla=2.07969e-08 FROM 8.01816e-06 TO 8.03896e-06
risa=9.14887e-09 FROM 1.0061e-06 TO 1.01525e-06
tpra=5.45035e-09 FROM 1.005e-06 TO 1.01045e-06
tpfa=6.01042e-06 FROM 2.015e-06 TO 8.02542e-06
bwb: 1/fallb=1.09303e+08
risb=2.07969e-08 FROM 8.01816e-06 TO 8.03896e-06
fallb=9.14887e-09 FROM 1.0061e-06 TO 1.01525e-06
tprb=-9.9455e-07 FROM 2.005e-06 TO 1.01045e-06
tpfb=4.01042e-06 FROM 4.015e-06 TO 8.02542e-06

Total elapsed time: 0.086 seconds.

