LTspice 24.0.12 for Windows
Circuit: * C:\Daniel\UDG\7mo\Seminario de solución de circuitos digitales\NAND3\NAND3\NOR\3inputs_NOR_3mA.asc
Start Time: Thu Oct  3 04:54:26 2024
Ignoring BSIM parameter XL
Ignoring BSIM parameter XW
Ignoring BSIM parameter XL
Ignoring BSIM parameter XW
solver = Normal
Maximum thread count: 12
tnom = 27
temp = 27
method = modified trap
Warning: Pd = 0 is less than W.
Warning: Ps = 0 is less than W.
Warning: Pd = 0 is less than W.
Warning: Ps = 0 is less than W.
Direct Newton iteration for .op point succeeded.

bwa: 1/falla=7.08227e+07
falla=1.41198e-08 FROM 8.0172e-06 TO 8.03132e-06
risa=1.61321e-08 FROM 1.00754e-06 TO 1.02367e-06
tpra=9.37178e-09 FROM 1.005e-06 TO 1.01437e-06
tpfa=6.00724e-06 FROM 2.015e-06 TO 8.02224e-06
bwb: 1/fallb=6.1988e+07
risb=1.41198e-08 FROM 8.0172e-06 TO 8.03132e-06
fallb=1.61321e-08 FROM 1.00754e-06 TO 1.02367e-06
tprb=-9.90628e-07 FROM 2.005e-06 TO 1.01437e-06
tpfb=4.00724e-06 FROM 4.015e-06 TO 8.02224e-06

Total elapsed time: 0.141 seconds.

