LTspice 24.0.12 for Windows
Circuit: * C:\Daniel\UDG\7mo\Seminario de solución de circuitos digitales\NAND3\NAND3\NOR\NOR_2pins_1mA.asc
Start Time: Thu Oct  3 02:43:37 2024
Ignoring BSIM parameter XL
Ignoring BSIM parameter XW
Ignoring BSIM parameter XL
Ignoring BSIM parameter XW
solver = Normal
Maximum thread count: 12
tnom = 27
temp = 27
method = modified trap
WARNING: Less than two connections to node c.  This node is used by v4.
Warning: Pd = 0 is less than W.
Warning: Ps = 0 is less than W.
Warning: Pd = 0 is less than W.
Warning: Ps = 0 is less than W.
Direct Newton iteration for .op point succeeded.

bwa: 1/falla=2.5181e+07
falla=3.97125e-08 FROM 4.02045e-06 TO 4.06016e-06
risa=3.05725e-08 FROM 1.00939e-06 TO 1.03996e-06
tpra=1.70766e-08 FROM 1.005e-06 TO 1.02208e-06
tpfa=2.01994e-06 FROM 2.015e-06 TO 4.03494e-06
bwb: 1/fallb=3.27091e+07
risb=3.97125e-08 FROM 4.02045e-06 TO 4.06016e-06
fallb=3.05725e-08 FROM 1.00939e-06 TO 1.03996e-06
tprb=-9.82923e-07 FROM 2.005e-06 TO 1.02208e-06
tpfb=1.99399e-08 FROM 4.015e-06 TO 4.03494e-06

Total elapsed time: 0.065 seconds.

