LTspice 24.0.12 for Windows
Circuit: * C:\Daniel\UDG\7mo\Seminario de solución de circuitos digitales\NAND3\NAND3\NOR\NOR_2pins_3mA_Correcion.asc
Start Time: Fri Oct  4 20:25:27 2024
Ignoring BSIM parameter XL
Ignoring BSIM parameter XW
Ignoring BSIM parameter XL
Ignoring BSIM parameter XW
solver = Normal
Maximum thread count: 12
tnom = 27
temp = 27
method = modified trap
Warning: Pd = 0 is less than W.
Warning: Ps = 0 is less than W.
Warning: Pd = 0 is less than W.
Warning: Ps = 0 is less than W.
Direct Newton iteration for .op point succeeded.

bwa: 1/falla=7.32045e+07
falla=1.36604e-08 FROM 4.01783e-06 TO 4.03149e-06
risa=1.15709e-08 FROM 1.00673e-06 TO 1.0183e-06
tpra=6.96914e-09 FROM 1.005e-06 TO 1.01197e-06
tpfa=2.00799e-06 FROM 2.015e-06 TO 4.02299e-06
bwb: 1/fallb=8.64237e+07
risb=1.36604e-08 FROM 4.01783e-06 TO 4.03149e-06
fallb=1.15709e-08 FROM 1.00673e-06 TO 1.0183e-06
tprb=-9.93031e-07 FROM 2.005e-06 TO 1.01197e-06
tpfb=7.99478e-09 FROM 4.015e-06 TO 4.02299e-06

Total elapsed time: 0.081 seconds.

