LTspice 24.0.12 for Windows
Circuit: * C:\Daniel\UDG\7mo\Seminario de solución de circuitos digitales\NAND3\NAND3\NOR\NOR_2pins_3mA.asc
Start Time: Thu Oct  3 01:33:59 2024
Ignoring BSIM parameter XL
Ignoring BSIM parameter XW
Ignoring BSIM parameter XL
Ignoring BSIM parameter XW
solver = Normal
Maximum thread count: 12
tnom = 27
temp = 27
method = modified trap
WARNING: Less than two connections to node c.  This node is used by v4.
Warning: Pd = 0 is less than W.
Warning: Ps = 0 is less than W.
Warning: Pd = 0 is less than W.
Warning: Ps = 0 is less than W.


Measurement "vcrucea" FAIL'ed

Measurement "vila" FAIL'ed

Measurement "viha" FAIL'ed

Measurement "nmla" FAIL'ed

Measurement "nmha" FAIL'ed

Measurement "ria" FAIL'ed
isca: MAX(id(m2))=7.90895e-12 FROM 0 TO 3.3

Measurement "vcruceb" FAIL'ed
iscb: MAX(id(m2))=7.90895e-12 FROM 0 TO 3.3

Measurement "vilb" FAIL'ed

Measurement "vihb" FAIL'ed

Measurement "nmlb" FAIL'ed

Measurement "nmhb" FAIL'ed

Measurement "rib" FAIL'ed

Total elapsed time: 0.098 seconds.

