LTspice 24.0.12 for Windows
Circuit: * C:\Daniel\UDG\7mo\Seminario de solución de circuitos digitales\NAND3\NAND3\NOR\NOR_2pins_2mA_Correccion.asc
Start Time: Fri Oct  4 20:20:17 2024
Ignoring BSIM parameter XL
Ignoring BSIM parameter XW
Ignoring BSIM parameter XL
Ignoring BSIM parameter XW
solver = Normal
Maximum thread count: 12
tnom = 27
temp = 27
method = modified trap
Warning: Pd = 0 is less than W.
Warning: Ps = 0 is less than W.
Warning: Pd = 0 is less than W.
Warning: Ps = 0 is less than W.
Direct Newton iteration for .op point succeeded.

bwa: 1/falla=4.95464e+07
falla=2.01831e-08 FROM 4.01869e-06 TO 4.03887e-06
risa=1.63546e-08 FROM 1.00753e-06 TO 1.02389e-06
tpra=9.58793e-09 FROM 1.005e-06 TO 1.01459e-06
tpfa=2.01113e-06 FROM 2.015e-06 TO 4.02613e-06
bwb: 1/fallb=6.11447e+07
risb=2.01831e-08 FROM 4.01869e-06 TO 4.03887e-06
fallb=1.63546e-08 FROM 1.00753e-06 TO 1.02389e-06
tprb=-9.90412e-07 FROM 2.005e-06 TO 1.01459e-06
tpfb=1.11294e-08 FROM 4.015e-06 TO 4.02613e-06

Total elapsed time: 0.088 seconds.

